% Generated from CEA case case_0014
SOLVER= RANS
KIND_TURB_MODEL= SST
SST_OPTIONS= V2003m, COMPRESSIBILITY-SARKAR
MATH_PROBLEM= DIRECT
RESTART_SOL= NO
AXISYMMETRIC= YES
MACH_NUMBER= 0.01
AOA= 0.0
INIT_OPTION= TD_CONDITIONS
FREESTREAM_OPTION= TEMPERATURE_FS
FREESTREAM_PRESSURE= 68096.40392762
FREESTREAM_TEMPERATURE= 3726.06000000
REF_DIMENSIONALIZATION= DIMENSIONAL
FLUID_MODEL= IDEAL_GAS
GAMMA_VALUE= 1.1346000000
GAS_CONSTANT= 370.6502118839
VISCOSITY_MODEL= SUTHERLAND
MU_REF= 1.716E-5
MU_T_REF= 273.15
SUTHERLAND_CONSTANT= 110.4
CONDUCTIVITY_MODEL= CONSTANT_PRANDTL
PRANDTL_LAM= 0.72
TURBULENT_CONDUCTIVITY_MODEL= CONSTANT_PRANDTL_TURB
PRANDTL_TURB= 0.90
MARKER_HEATFLUX= ( WALL, 0.0 )
MARKER_SYM= ( AXIS )
MARKER_RIEMANN= ( INLET, TOTAL_CONDITIONS_PT, 23456981.10552983, 3726.06000000, 1.0, 0.0, 0.0, OUTLET, STATIC_PRESSURE, 68096.40392762, 0.0, 0.0, 0.0, 0.0 )
MARKER_MONITORING= ( WALL )
MARKER_PLOTTING= ( WALL )
NUM_METHOD_GRAD= WEIGHTED_LEAST_SQUARES
CFL_NUMBER= 0.05
CFL_ADAPT= YES
CFL_ADAPT_PARAM= ( 0.5, 1.05, 0.02, 1.0 )
MUSCL_FLOW= NO
SLOPE_LIMITER_FLOW= VENKATAKRISHNAN_WANG
VENKAT_LIMITER_COEFF= 0.05
LINEAR_SOLVER= FGMRES
LINEAR_SOLVER_PREC= ILU
LINEAR_SOLVER_ERROR= 1E-4
LINEAR_SOLVER_ITER= 8
CONV_NUM_METHOD_FLOW= ROE
ENTROPY_FIX_COEFF= 0.1
TIME_DISCRE_FLOW= EULER_IMPLICIT
CONV_NUM_METHOD_TURB= SCALAR_UPWIND
TIME_DISCRE_TURB= EULER_IMPLICIT
CFL_REDUCTION_TURB= 0.5
ITER= 3000
CONV_RESIDUAL_MINVAL= -7
CONV_STARTITER= 100
CONV_CAUCHY_ELEMS= 100
CONV_CAUCHY_EPS= 1E-6
MESH_FILENAME= nozzle.su2
MESH_FORMAT= SU2
SOLUTION_FILENAME= restart
CONV_FILENAME= history
RESTART_FILENAME= restart
VOLUME_FILENAME= flow
SURFACE_FILENAME= wall
OUTPUT_FILES= ( RESTART, PARAVIEW_ASCII, SURFACE_PARAVIEW_ASCII, SURFACE_CSV )
VOLUME_OUTPUT= ( COORDINATES, SOLUTION, PRIMITIVE )
OUTPUT_WRT_FREQ= 500
HISTORY_WRT_FREQ_INNER= 1
SCREEN_WRT_FREQ_INNER= 20
SCREEN_OUTPUT= ( INNER_ITER, RMS_DENSITY, RMS_ENERGY, RMS_TKE, RMS_DISSIPATION )
